
.global 0 

.param W1=1u L1=1u Wb=1u Lb=1u VB=1 Wd=1u Ld=1u Voffset=1


*resistive load diff pair


.model nMOS nmos level=53
.model pMOS pmos level=53

m4 voutl voutl netVDD netVDD pMOS w='Wd' l='Ld'
m5 voutr voutr netVDD netVDD pMOS w='Wd' l='Ld'

m1 voutl vinl virtgr 0 nMOS w='W1' l='L1'
m2 voutr vinr virtgr 0 nMOS w='W1' l='L1'

C01 voutr 0 5p
C02 voutl 0 5p

m3 virtgr vbias 0 0 nMOS w='Wb' l='Lb'


V0 netVDD 0 dc 3.3

V1 voffset 0 dc 'Voffset'

V3 vinl voffset ac 0.01

V4 vinr voffset ac -0.01

V2 vbias 0 'VB'

.ac dec 10 100 1G data=list

.data list W1 L1 Wb Lb VB Wd Ld Voffset
+ 9.8234e-06 5.4576e-07 2.9888e-06 2.9441e-06 3.2017 5.2818e-06 1.5821e-06 2.6602 
+ 9.9413e-06 5.3275e-07 3.2061e-06 2.987e-06 2.1962 2.5508e-06 1.777e-06 2.2067 
+ 1e-05 1.2416e-06 7.6506e-06 3e-06 2.2213 3.2539e-06 1.5613e-06 2.529 
+ 5.1149e-06 5e-07 9.9302e-06 1.5682e-06 3.1535 7.8428e-06 3e-06 2.3981 
+ 9.2518e-06 6.1752e-07 1.2068e-06 5e-07 1.8 2.5704e-06 3e-06 2.2296 
+ 1e-05 5e-07 2.8593e-06 1.3225e-06 2.2381 9.6117e-06 1.8022e-06 2.3991 
+ 9.9441e-06 5.234e-07 4.872e-06 2.9583e-06 2.9391 5.6518e-06 1.5134e-06 2.7108 
+ 1e-05 5e-07 1e-05 2.9555e-06 2.2213 3.2539e-06 1.1697e-06 2.9018 
+ 1e-05 5e-07 2.8593e-06 5e-07 2.2381 9.6117e-06 2.729e-06 2.3991 
+ 1e-05 6.1752e-07 8.6305e-06 3e-06 1.8412 6.3074e-06 2.1837e-06 2.9636 
+ 1e-05 5e-07 3.0599e-06 3e-06 3.1952 1e-05 1.9291e-06 2.8628 
+ 9.9413e-06 5.3275e-07 4.8096e-06 2.987e-06 2.0268 2.5508e-06 1.777e-06 2.2067 
+ 1e-05 1.2328e-06 1e-05 2.3789e-06 2.2213 3.7553e-06 1.1215e-06 2.529 
+ 1e-05 5e-07 3.0599e-06 1.4842e-06 2.2213 2.1525e-06 1.5613e-06 2.529 
+ 1e-05 5e-07 9.9302e-06 2.1483e-06 3.1535 9.4016e-06 2.6029e-06 2.3981 
+ 1e-05 5e-07 1.2068e-06 7.415e-07 1.8 2.5704e-06 3e-06 1.8 
+ 1e-05 6.1752e-07 1.2068e-06 7.415e-07 1.8 2.5704e-06 3e-06 1.8 
+ 1e-05 5e-07 2.8593e-06 1.3225e-06 2.2381 9.6117e-06 1.847e-06 2.3991 
+ 1e-05 1.9195e-06 1.2068e-06 7.415e-07 1.8 7.666e-06 3e-06 1.8 
+ 1e-05 5e-07 4.8282e-06 2.2528e-06 2.4087 6.8126e-06 2.5324e-06 2.6949 
+ 1e-05 5e-07 2.8593e-06 1.3225e-06 2.2381 9.6117e-06 1.8022e-06 2.3991 
+ 9.9413e-06 5.3275e-07 6.3475e-06 2.987e-06 2.0268 2.5508e-06 1.777e-06 2.0358 
+ 9.9461e-06 6.0909e-07 2.6734e-06 6.7318e-07 1.8188 2.7342e-06 2.9554e-06 2.3874 
+ 1e-05 2.6284e-06 3.0599e-06 2.5224e-06 2.9157 5.144e-06 1.5613e-06 2.6542 
+ 1e-05 5e-07 1.7591e-06 1.3225e-06 2.2381 9.6117e-06 1.8022e-06 2.3991 
+ 1e-05 5e-07 2.8593e-06 1.3225e-06 2.2381 6.1565e-06 1.8022e-06 2.3991 
+ 9.9413e-06 5e-07 5.5919e-06 2.8696e-06 1.8 2.5508e-06 1.777e-06 2.2067 
+ 1e-05 5e-07 1e-05 1.3225e-06 2.2381 9.6117e-06 1.8022e-06 2.3991 
+ 1e-05 5e-07 2.8593e-06 1.3225e-06 1.8 9.6117e-06 1.8022e-06 2.3991 
+ 1e-05 6.1752e-07 1.4491e-06 3e-06 2.8757 3.7553e-06 1.5613e-06 2.529 
+ 1e-05 5e-07 1e-06 2.987e-06 1.8 2.5508e-06 1.777e-06 2.7822 
+ 9.9413e-06 5.3275e-07 3.2061e-06 3e-06 2.0268 2.5508e-06 1.777e-06 2.2067 
+ 9.9748e-06 6.2502e-07 3.1909e-06 7.7563e-07 1.8275 2.4304e-06 2.9922e-06 1.8457 
+ 1e-05 5e-07 2.8593e-06 1.3225e-06 2.5994 9.6117e-06 1.8022e-06 2.3991 
+ 3.1663e-06 5e-07 9.5924e-06 2.987e-06 2.0268 4.8358e-06 1.777e-06 2.1845 
+ 9.3328e-06 6.1752e-07 7.6506e-06 1.2726e-06 2.2213 3.2539e-06 1.5613e-06 2.529 
+ 9.9413e-06 5.3275e-07 3.2061e-06 2.987e-06 2.0268 2.5508e-06 1.777e-06 2.7082 
+ 1e-05 5e-07 2.8593e-06 1.3225e-06 2.2381 6.485e-06 1.8022e-06 2.3991 
+ 9.9569e-06 5.3786e-07 4.6863e-06 2.932e-06 2.1729 6.9105e-06 1.5277e-06 2.5111 
+ 9.9413e-06 5.3275e-07 3.2061e-06 2.987e-06 2.0268 7.638e-06 1.777e-06 2.2067 
+ 1e-05 5e-07 1e-06 2.8048e-06 2.8826 6.8126e-06 2.5324e-06 2.6949 
+ 9.9413e-06 5.3275e-07 3.2061e-06 2.987e-06 2.0268 2.5508e-06 1.777e-06 2.2067 
+ 1e-05 5e-07 2.8593e-06 1.0279e-06 3.1683 9.6117e-06 1.8022e-06 2.3991 
+ 1e-05 5e-07 9.9302e-06 2.6377e-06 2.6573 9.9947e-06 2.3145e-06 2.3981 
+ 1e-05 5e-07 2.8593e-06 1.3225e-06 2.2381 9.6117e-06 1.8022e-06 2.3991 
+ 1e-05 6.1752e-07 1e-05 3e-06 2.7414 3.2539e-06 1.5613e-06 2.9636 
+ 7.1921e-06 6.1752e-07 3.0599e-06 2.3789e-06 2.2213 3.7553e-06 1.5613e-06 2.529 
+ 1e-05 5e-07 1.7089e-06 2.0506e-06 2.8826 6.6371e-06 2.5324e-06 2.6949 
+ 1e-05 6.1752e-07 1.2068e-06 7.415e-07 1.8 2.5704e-06 3e-06 1.8 
+ 9.9413e-06 5.3275e-07 3.2061e-06 2.987e-06 2.0268 4.4365e-06 1.777e-06 2.2067 
+ 1e-05 5e-07 3.0599e-06 3e-06 2.9157 5.144e-06 5e-07 2.5273 
+ 1e-05 5e-07 3.0599e-06 3e-06 3.1952 6.2272e-06 1.5613e-06 2.6943 
+ 1e-05 6.1752e-07 5.9798e-06 7.415e-07 1.8 3.4283e-06 3e-06 1.8 
.enddata

.printfile ac v(voutr, voutl) file=acResult
