
.global 0 

.param W1=1u L1=1u Wb=1u Lb=1u VB=1 Wd=1u Ld=1u Voffset=1


*resistive load diff pair

V2 vbias 0 'VB'

.model nMOS nmos level=53
.model pMOS pmos level=53

m4 voutl voutl netVDD netVDD pMOS w='Wd' l='Ld'
m5 voutr voutr netVDD netVDD pMOS w='Wd' l='Ld'

m1 voutl vinl virtgr 0 nMOS w='W1' l='L1'
m2 voutr vinr virtgr 0 nMOS w='W1' l='L1'

C01 voutr 0 5p
C02 voutl 0 5p

m3 virtgr vbias 0 0 nMOS w='Wb' l='Lb'


V0 netVDD 0 dc 3.3

V1 voffset 0 dc 'Voffset'

V3 vinl voffset ac 0.01

V4 vinr voffset ac -0.01

V2 vbias 0 'VB'

.ac dec 10 100 1G data=list

.data list W1 L1 Wb Lb VB Wd Ld Voffset
xxPARAMxx
.enddata

.printfile ac v(voutr, voutl) file=acResult
