
.global 0 

.param R1=10000 W1=1u L1=1u Wb=1u Lb=1u VB=1 Wd=1u Ld=1u Voffset=1


*resistive load diff pair

.model nMOS nmos level=53
.model pMOS pmos level=53

m4 voutl voutl netVDD netVDD pMOS w='Wd' l='Ld'
m5 voutr voutr netVDD netVDD pMOS w='Wd' l='Ld'

m1 voutl vinl virtgr 0 nMOS w='W1' l='L1'
m2 voutr vinr virtgr 0 nMOS w='W1' l='L1'

C01 voutr 0 5p
C02 voutl 0 5p

m3 virtgr vbias 0 0 nMOS w='Wb' l='Lb'

V0 netVDD 0 dc 3.3
V1 voffset 0 dc 'Voffset'
V3 vinl voffset dc 0
V4 vinr voffset dc -0
V2 vbias 0 'VB'


.dc data=list

.data list R1 W1 L1 Wb Lb VB Wd Ld Voffset
+ 19073.8476 1e-06 1.063e-06 1e-06 5e-07 1.8 1e-06 2.8439e-06 1.8 
+ 10000 1e-06 5e-07 1e-06 5e-07 1.8 5.2885e-06 1.8066e-06 1.8 
+ 64422.481 5.671e-06 8.9356e-07 1e-06 5e-07 1.8 2.7382e-06 2.1589e-06 2.8507 
+ 22879.2166 1.8756e-06 8.9373e-07 1.0471e-06 6.0016e-07 1.8087 1.8541e-06 2.8636e-06 1.9125 
+ 59169.0683 1.6619e-06 9.3515e-07 1.3653e-06 5.3627e-07 1.8908 1.0027e-06 3e-06 2.0636 
+ 41543.6966 1.5195e-06 6.4443e-07 1.194e-06 7.2326e-07 1.8115 1.7586e-06 2.9062e-06 1.898 
+ 10000 1e-06 7.4115e-07 1e-06 5e-07 1.8 2.1397e-06 2.4967e-06 1.8 
+ 43794.2472 2.162e-06 1.3788e-06 1.6276e-06 6.9677e-07 1.9113 1.8153e-06 2.5497e-06 2.1177 
+ 59201.9244 1.1088e-06 7.4926e-07 1.6579e-06 5.4942e-07 1.8883 5.4947e-06 3e-06 2.1053 
+ 18133.7292 1.4605e-06 6.6098e-07 1.1862e-06 5.9008e-07 1.9304 6.5508e-06 2.0659e-06 1.8473 
+ 50362.5803 1.0444e-06 1.3554e-06 1.2272e-06 6.7493e-07 1.8217 1.7201e-06 2.8527e-06 1.8014 
+ 23757.9914 1.2183e-06 5.9558e-07 1.1364e-06 5.2783e-07 1.8234 2.1414e-06 3e-06 1.9392 
+ 15219.7713 1e-06 5e-07 1e-06 5e-07 1.8 2.0793e-06 3e-06 1.8 
+ 59002.4701 1.4494e-06 5.4779e-07 1.3558e-06 5.3142e-07 1.8355 1.2476e-06 2.8378e-06 2.1198 
+ 59454.7805 1.0637e-06 8.1951e-07 1.6335e-06 5.9542e-07 1.907 1.5383e-06 2.8685e-06 1.9285 
+ 16130.8378 1.3692e-06 1.4107e-06 1.057e-06 5.16e-07 1.9154 2.2511e-06 2.5343e-06 1.8487 
+ 11374.8792 1.5122e-06 1.4393e-06 1.3773e-06 7.1431e-07 1.8425 4.0715e-06 2.7517e-06 1.8282 
+ 10000 1e-06 5e-07 1e-06 5e-07 2.0121 2.0793e-06 2.8439e-06 1.8 
+ 63658.6087 1.6773e-06 9.2839e-07 1.8582e-06 5.8408e-07 1.8244 1.5162e-06 2.3712e-06 1.9049 
+ 17142.8149 1.4988e-06 8.7896e-07 1.6212e-06 5.6885e-07 1.8438 5.3993e-06 2.7743e-06 1.8951 
+ 58117.6562 5.671e-06 8.9356e-07 1.6972e-06 5e-07 1.8 4.4046e-06 2.1589e-06 2.8507 
+ 50145.4631 1.4841e-06 9.7304e-07 1.5449e-06 6.8114e-07 1.8599 5.3124e-06 2.0051e-06 2.0951 
+ 12836.4451 1.2286e-06 7.914e-07 1.1005e-06 7.4736e-07 1.8976 5.5527e-06 2.0904e-06 1.8686 
+ 10000 1e-06 7.4115e-07 1e-06 5e-07 1.8 5.2885e-06 1.9812e-06 1.8 
+ 10000 1e-06 6.5823e-07 1e-06 7.0035e-07 1.8 5.2885e-06 1.8687e-06 1.8 
+ 63471.6017 2.1536e-06 6.3116e-07 1.7898e-06 5.888e-07 1.8896 1.813e-06 2.8877e-06 2.0578 
+ 20755.7187 2.1592e-06 1.5894e-06 1.0259e-06 5.1982e-07 1.8623 1.4204e-06 3e-06 1.9447 
+ 57203.8153 1e-06 7.7046e-07 1e-06 5e-07 1.8 1e-06 3e-06 2.0529 
+ 10000 1e-06 5e-07 1e-06 5e-07 1.8 4.8883e-06 1.962e-06 1.8 
+ 61084.7908 1.802e-06 2.302e-06 1.848e-06 6.6575e-07 1.8759 5.6841e-06 2.0009e-06 1.9251 
+ 43000.1549 1e-06 1.231e-06 1e-06 5e-07 1.8 1e-06 2.9977e-06 2.0529 
+ 43668.6698 2.0009e-06 1.4004e-06 1e-06 5e-07 2.2928 1.776e-06 3e-06 1.8 
+ 47370.1832 1.1181e-06 7.9238e-07 1.2814e-06 6.2199e-07 1.9419 7.1178e-06 3e-06 1.872 
+ 37456.9735 1e-06 5e-07 1e-06 5.7508e-07 1.8 2.5124e-06 2.638e-06 1.8 
+ 21997.8284 1.3537e-06 8.3108e-07 1.6868e-06 7.3672e-07 1.821 2.316e-06 3e-06 1.8255 
+ 15684.7376 1.7761e-06 8.4676e-07 1.367e-06 5.3709e-07 1.9408 6.0467e-06 2.1392e-06 1.8307 
+ 61771.3558 1.0426e-06 6.0229e-07 1.0885e-06 7.1049e-07 1.8155 1.1827e-06 3e-06 1.8819 
+ 62728.5391 1.5751e-06 5.328e-07 1.2827e-06 7.4657e-07 1.8276 2.567e-06 2.8704e-06 2.1011 
+ 13083.1878 1.445e-06 6.6672e-07 1.7751e-06 7.1367e-07 1.8244 3.9314e-06 2.9002e-06 1.837 
+ 62482.5531 6.1219e-06 1.3119e-06 1.788e-06 5.9284e-07 1.8144 2.9897e-06 2.3556e-06 1.9246 
+ 10000 1e-06 7.4115e-07 1e-06 5e-07 1.8 4.6048e-06 1.8077e-06 1.8 
+ 11125.4693 2.0777e-06 1.4409e-06 1.7932e-06 6.064e-07 1.8011 5.5997e-06 3e-06 1.8363 
+ 10000 1e-06 5e-07 2.7292e-06 5e-07 1.8 5.7595e-06 1.962e-06 1.8 
+ 11402.0207 1.7942e-06 7.5745e-07 1.0698e-06 7.1128e-07 1.807 6.0523e-06 3e-06 1.8716 
+ 20951.0178 1.6658e-06 8.4212e-07 1.499e-06 5.1274e-07 1.8608 1.5524e-06 2.4749e-06 1.8102 
+ 16895.6631 1.2136e-06 8.338e-07 1.6607e-06 5.8166e-07 1.885 2.3035e-06 2.9759e-06 1.8184 
+ 10000 1e-06 7.4115e-07 1e-06 5e-07 1.8 5.2885e-06 1.9812e-06 1.8 
+ 14332.4171 1e-06 1.231e-06 1e-06 5e-07 1.8 1e-06 2.3011e-06 2.0529 
+ 38944.5371 1e-06 1.2777e-06 1e-06 5e-07 1.8 3.2386e-06 2.8439e-06 1.8 
+ 15144.5508 1.7531e-06 8.4755e-07 1.7863e-06 7.2346e-07 1.9288 5.4323e-06 3e-06 1.8009 
.enddata

.printfile dc ID(m3) file=dcResult
