
.global 0 

.param W1=1u L1=1u Wb=1u Lb=1u VB=1 Wd=1u Ld=1u Voffset=1


*resistive load diff pair

.model nMOS nmos level=53
.model pMOS pmos level=53

m4 voutl voutl netVDD netVDD pMOS w='Wd' l='Ld'
m5 voutr voutr netVDD netVDD pMOS w='Wd' l='Ld'

m1 voutl vinl virtgr 0 nMOS w='W1' l='L1'
m2 voutr vinr virtgr 0 nMOS w='W1' l='L1'

C01 voutr 0 5p
C02 voutl 0 5p

m3 virtgr vbias 0 0 nMOS w='Wb' l='Lb'

V0 netVDD 0 dc 3.3
V1 voffset 0 dc 'Voffset'
V3 vinl voffset dc 0
V4 vinr voffset dc -0
V2 vbias 0 'VB'


.dc data=list

.data list W1 L1 Wb Lb VB Wd Ld Voffset
+ 9.5634e-06 5.0632e-07 9.9053e-06 7.0154e-07 2.7638 7.4672e-06 6.4256e-07 2.4598 
+ 9.442e-06 6.9176e-07 9.9644e-06 5.8019e-07 2.8674 7.465e-06 5.3114e-07 2.2979 
+ 9.6746e-06 5.6643e-07 9.686e-06 1.0233e-06 2.7708 7.9075e-06 5.1422e-07 2.5269 
+ 9.8705e-06 5.226e-07 9.9479e-06 1.2227e-06 2.8261 7.1699e-06 5.7073e-07 2.4071 
+ 9.8451e-06 5e-07 9.112e-06 6.4038e-07 2.8151 7.5432e-06 7.488e-07 2.0306 
+ 9.1482e-06 5.3871e-07 9.6376e-06 1.1104e-06 2.1022 7.1024e-06 1.3008e-06 2.3058 
+ 9.6822e-06 5.041e-07 9.1315e-06 5.8322e-07 2.0606 7.5271e-06 5.9773e-07 2.4346 
+ 9.2083e-06 6.037e-07 9.4957e-06 1.3473e-06 2.2007 7.4435e-06 1.311e-06 1.984 
+ 1e-05 5e-07 8.4041e-06 1.2946e-06 2.7094 8.1733e-06 5e-07 2.6262 
+ 9.494e-06 5.978e-07 8.036e-06 1.015e-06 2.0886 7.3789e-06 5.1537e-07 2.706 
+ 9.7031e-06 5.3333e-07 9.9622e-06 6.5176e-07 2.7752 7.4312e-06 7.7751e-07 1.9112 
+ 9.9556e-06 6.1017e-07 9.8652e-06 1.3665e-06 2.8183 7.6652e-06 5.174e-07 2.3642 
+ 9.579e-06 5.2688e-07 9.318e-06 5.8558e-07 2.9959 8.4481e-06 7.046e-07 2.2116 
+ 9.8103e-06 6.3918e-07 9.6242e-06 1.1562e-06 2.8099 8.0171e-06 5.2758e-07 2.06 
+ 1e-05 5.3282e-07 9.7733e-06 6.4038e-07 2.8151 7.4593e-06 7.488e-07 2.0266 
+ 9.8802e-06 5.3816e-07 9.6306e-06 1.212e-06 1.9587 6.9487e-06 5.3918e-07 2.3682 
+ 9.6779e-06 6.1197e-07 9.7016e-06 1.0829e-06 2.0934 7.8648e-06 7.6744e-07 1.9438 
.enddata

.printfile dc ID(m3) file=dcResult
