
.global 0 

.param R1=10000 W1=1u L1=1u Wb=1u Lb=1u VB=1


*resistive load diff pair

.model nMOS nmos level=53
.model pMOS pmos level=53

R01 netVDD voutl 'R1'
R02 netVDD voutr 'R1'

m1 voutl vinl virtgr 0 nMOS w='W1' l='L1'
m2 voutr vinr virtgr 0 nMOS w='W1' l='L1'

C01 voutr 0 5p
C02 voutl 0 5p

m3 virtgr vbias 0 0 nMOS w='Wb' l='Lb'

V0 netVDD 0 dc 3.3

V1 voffset 0 dc 2

V3 vinl voffset ac 0.01

V4 vinr voffset ac -0.01

V2 vbias 0 'VB'

.ac dec 10 100 1G data=list

.data list R1 W1 L1 Wb Lb VB
+ 95898.8805 1e-05 1.3417e-06 8.2065e-06 1.9391e-06 3.2498 
+ 46523.3821 1e-05 1.0521e-06 4.3224e-06 4.0239e-06 2.5173 
+ 100000 1e-05 1.1958e-06 1e-05 1.5266e-06 3.3 
+ 79617.2831 1e-05 1.7137e-06 8.6353e-06 3.5834e-06 2.6418 
+ 91090.2874 1e-05 1e-06 4.2597e-06 3.5978e-06 2.5026 
+ 100000 1e-05 1.0329e-06 4.9696e-06 1.5365e-06 3.3 
+ 64708.8454 1e-05 1.647e-06 6.4126e-06 6.0357e-06 3.0501 
+ 89912.9603 1e-05 2.8902e-06 8.4457e-06 1.4943e-06 1.9163 
+ 99712.2642 1e-05 1.4947e-06 9.2766e-06 1.802e-06 1.9222 
+ 89912.9603 1e-05 1.3238e-06 9.0908e-06 1.4943e-06 1.9163 
+ 65903.3256 1e-05 1.2636e-06 6.2216e-06 4.3765e-06 2.9671 
+ 100000 1e-05 1.6011e-06 1e-05 6.1357e-06 2.3119 
+ 40335.6089 1e-05 1.146e-06 4.017e-06 9.8219e-06 2.7553 
+ 95484.4825 1e-05 1e-06 1e-05 1e-06 3.3 
+ 100000 1e-05 1.6061e-06 1e-05 2.9808e-06 1.9482 
+ 97862.9766 1e-05 1.3867e-06 1e-05 3.9706e-06 3.2742 
+ 97127.2326 1e-05 1.7131e-06 1e-05 2.3134e-06 3.3 
+ 100000 1e-05 1.5009e-06 1e-05 2.9714e-06 3.3 
+ 99839.2463 1e-05 1.0965e-06 9.8711e-06 2.4917e-06 3.3 
+ 95484.4825 9.3612e-06 1e-06 1e-05 1e-06 2.8875 
+ 100000 1e-05 1.8639e-06 3.0021e-06 1.0153e-06 3.3 
+ 89912.9603 1e-05 1e-06 9.0908e-06 1.4943e-06 1.9163 
+ 98359.5786 1e-05 1.616e-06 6.0689e-06 3.045e-06 2.8262 
+ 44608.0139 1e-05 1.6097e-06 8.7782e-06 6.6443e-06 2.3996 
+ 91300.5996 1e-05 1.2849e-06 9.3709e-06 2.3858e-06 2.0255 
+ 39691.5988 1e-05 1.2305e-06 2.4453e-06 6.7159e-06 2.6941 
+ 89912.9603 1e-05 1e-06 9.3373e-06 1.4943e-06 1.9163 
+ 100000 1e-05 1.018e-06 1e-05 5.8686e-06 2.8805 
+ 96130.1535 1e-05 1e-06 9.4603e-06 2.2348e-06 3.2051 
+ 57081.4657 9.6464e-06 2.3082e-06 5.7975e-06 3.5731e-06 2.9452 
+ 97290.0039 1e-05 1.8533e-06 8.5845e-06 1.5718e-06 2.9583 
+ 65818.6481 1e-05 1.8016e-06 8.065e-06 4.3191e-06 3.3 
+ 42184.8237 1e-05 1.3273e-06 1e-05 6.2567e-06 2.9092 
+ 39691.5988 9.3193e-06 1.2305e-06 2.4453e-06 9.9977e-06 2.6941 
+ 100000 1e-05 1e-06 9.4603e-06 2.2348e-06 3.3 
+ 77176.3791 1e-05 1.2632e-06 1e-05 2.4221e-06 3.3 
+ 90175.0243 1e-05 1e-06 2.3796e-06 8.8228e-06 2.7308 
+ 94074.2646 1e-05 1.2888e-06 9.8277e-06 2.9318e-06 2.6519 
+ 38099.4862 1e-05 1.0989e-06 8.9042e-06 6.4486e-06 2.6512 
+ 35997.0752 1e-05 1e-06 7.4393e-06 5.8175e-06 2.5945 
+ 57081.4657 6.7874e-06 1e-06 5.3624e-06 3.5731e-06 2.9452 
+ 97701.709 1e-05 1.2476e-06 1e-05 1.7767e-06 2.4071 
+ 92992.3782 1e-05 1e-06 9.0423e-06 2.2348e-06 3.3 
+ 41388.215 1e-05 1.2894e-06 8.4416e-06 5.2935e-06 3.0627 
+ 53384.6524 1e-05 1.7422e-06 4.2865e-06 1e-05 2.6957 
+ 92128.9872 1e-05 1.4727e-06 9.7456e-06 2.5028e-06 2.0082 
+ 98436.1628 1e-05 1.3775e-06 2.6875e-06 8.9218e-06 2.8896 
+ 44741.9738 1e-05 1.2316e-06 6.6417e-06 3.7909e-06 2.9247 
+ 43235.9202 1e-05 1.0872e-06 9.8925e-06 2.2174e-06 2.3516 
+ 100000 1e-05 1.2976e-06 1e-05 5.9449e-06 3.0714 
.enddata

.printfile ac v(voutr, voutl) file=acResult