
.global 0 

.param R1=10000 W1=1u L1=1u Wb=1u Lb=1u VB=1 Voffset=1


*resistive load diff pair

.model nMOS nmos level=53
.model pMOS pmos level=53

R01 netVDD voutl 'R1'
R02 netVDD voutr 'R1'

m1 voutl vinl virtgr 0 nMOS w='W1' l='L1'
m2 voutr vinr virtgr 0 nMOS w='W1' l='L1'

C01 voutr 0 5p
C02 voutl 0 5p

m3 virtgr vbias 0 0 nMOS w='Wb' l='Lb'

V0 netVDD 0 dc 3.3

V1 voffset 0 dc 'Voffset'

V3 vinl voffset ac 0.01

V4 vinr voffset ac -0.01

V2 vbias 0 'VB'

.ac dec 10 100 1G data=list

.data list R1 W1 L1 Wb Lb VB Voffset
+ 99754.8673 1e-05 7.3164e-07 4.5338e-06 1.0424e-06 2.8029 2.4 
+ 10000 1e-05 5e-07 1.7492e-06 5e-07 2.8869 1.9882 
+ 13428.3806 1e-05 5.0252e-07 6.2492e-06 1.0524e-06 3.1702 2.2613 
+ 10000 1e-05 8.0662e-07 7.2945e-06 5e-07 3.1624 2.3913 
+ 10000 1e-05 5e-07 7.6628e-06 5e-07 2.7925 2.3007 
+ 42135.468 1e-05 5.351e-07 5.845e-06 8.8956e-07 2.7197 2.2052 
+ 78442.63 1e-05 7.8353e-07 7.9687e-06 9.6669e-07 3.3 2.1176 
+ 91081.6524 1e-05 6.3745e-07 5.1653e-06 6.1848e-07 3.3 2.24 
+ 10000 9.8179e-06 5e-07 6.2989e-06 1.2186e-06 2.6217 1.9436 
+ 70158.7528 1e-05 8.5104e-07 8.1193e-06 1.0852e-06 2.0722 2.4 
+ 93343.5075 1e-05 1.1716e-06 7.3876e-06 9.4292e-07 3.1855 2.3913 
+ 13428.3806 1e-05 5.0252e-07 3.5046e-06 6.496e-07 3.1702 2.2613 
+ 79110.6607 1e-05 5.164e-07 7.9465e-06 1.0198e-06 2.7932 2.3289 
+ 48376.7846 1e-05 6.9209e-07 7.6587e-06 5.2425e-07 2.8911 2.0064 
+ 58553.0978 1e-05 1.2166e-06 7.8388e-06 8.0864e-07 2.1643 2.2045 
+ 68952.0132 1e-05 7.4199e-07 4.3225e-06 1.0472e-06 3.3 2.4 
+ 111268.4796 1e-05 6.6515e-07 7.898e-06 7.9691e-07 2.7978 2.247 
+ 71510.0028 1e-05 6.5154e-07 7.8509e-06 7.198e-07 2.895 2.3449 
+ 77164.2455 1e-05 5.0297e-07 7.0753e-06 1.0569e-06 2.9461 2.2502 
+ 10000 9.8179e-06 5e-07 6.2989e-06 1.3989e-06 2.6217 2.0984 
+ 85195.2124 1e-05 5.4189e-07 4.5412e-06 6.063e-07 2.9269 2.0324 
+ 52642.6441 9.9219e-06 5.2165e-07 2.1006e-06 1.359e-06 2.899 2.152 
+ 71386.7993 9.8179e-06 5e-07 6.2989e-06 1.2186e-06 2.6217 2.0984 
+ 88177.5549 1e-05 5.6286e-07 5.4208e-06 9.0229e-07 2.8078 2.4 
+ 355004.6272 1e-05 7.5592e-07 5.7489e-06 6.5741e-07 1.9909 2.4 
+ 48091.6408 1e-05 5.9902e-07 6.0503e-06 5.8325e-07 3.3 2.4 
+ 12171.3856 1e-05 7.2464e-07 8.4292e-06 6.6735e-07 3.3 2.4 
+ 63127.2077 1e-05 6.3363e-07 5.9598e-06 1.2398e-06 3.2266 2.2078 
+ 71628.8293 1e-05 5.102e-07 7.0493e-06 1.12e-06 2.9582 2.2613 
+ 13428.3806 1e-05 5.0252e-07 6.1522e-06 8.3967e-07 2.8591 2.2613 
+ 108553.72 1e-05 7.4219e-07 7.5016e-06 5.5888e-07 3.3 2.0051 
+ 63833.3174 1e-05 5.7821e-07 5.9633e-06 5.8652e-07 2.8065 2.2093 
+ 26980.0783 1e-05 6.7142e-07 7.9509e-06 8.3357e-07 3.3 2.4 
+ 73781.5776 1e-05 5.1606e-07 2.2275e-06 6.2929e-07 3.0152 1.8515 
+ 40089.9495 1e-05 6.9793e-07 6.5388e-06 7.3684e-07 2.8892 2.4 
+ 80929.8569 1e-05 5.5292e-07 6.2104e-06 7.5257e-07 2.7079 2.199 
+ 44980.2321 1e-05 6.8356e-07 8.7217e-06 6.0936e-07 2.1364 2.3421 
+ 94500.1673 1e-05 7.0946e-07 4.0934e-06 1.1188e-06 3.3 2.4 
+ 55869.3526 1e-05 6.7404e-07 4.294e-06 9.1798e-07 2.9345 2.4 
+ 43940.1265 1e-05 7.4255e-07 4.4393e-06 8.8635e-07 2.7596 2.4 
+ 10000 1e-05 5e-07 4.3307e-06 8.0445e-07 3.3 2.3978 
+ 67060.4737 1e-05 6.8024e-07 7.803e-06 1.1386e-06 3.3 2.128 
+ 102505.2987 1e-05 5.4877e-07 2.2134e-06 1.2226e-06 2.9345 2.2829 
+ 86287.6243 1e-05 7.143e-07 7.8382e-06 6.5705e-07 2.8148 2.3361 
+ 38812.3246 1e-05 7.8138e-07 1.795e-06 5.0295e-07 2.0928 2.0112 
+ 20652.7326 1e-05 5.693e-07 8.1886e-06 9.553e-07 3.3 2.0161 
+ 38336.6472 1e-05 6.3629e-07 8.4754e-06 5.4632e-07 1.8 2.4 
+ 10000 1e-05 5.0252e-07 6.2492e-06 1.0524e-06 3.1702 2.2613 
+ 96331.234 1e-05 6.1411e-07 6.2521e-06 5.8551e-07 2.6963 1.8191 
+ 10000 1e-05 5e-07 4.492e-06 5e-07 3.3 1.8 
.enddata

.printfile ac v(voutr, voutl) file=acResult
