
.global 0 

.param R1=10000 W1=1u L1=1u Wb=1u Lb=1u VB=1 Voffset=1


*resistive load diff pair

.model nMOS nmos level=53
.model pMOS pmos level=53

R01 netVDD voutl 'R1'
R02 netVDD voutr 'R1'

m1 voutl vinl virtgr 0 nMOS w='W1' l='L1'
m2 voutr vinr virtgr 0 nMOS w='W1' l='L1'

C01 voutr 0 5p
C02 voutl 0 5p

m3 virtgr vbias 0 0 nMOS w='Wb' l='Lb'

V0 netVDD 0 dc 3.3

V1 voffset 0 dc 'Voffset'

V3 vinl voffset ac 0.01

V4 vinr voffset ac -0.01

V2 vbias 0 'VB'

.ac dec 10 100 1G data=list

.data list R1 W1 L1 Wb Lb VB Voffset
+ 29211.2964 7.6662e-06 5.4707e-07 1e-05 2.7562e-06 1.9414 2.4 
+ 90723.4267 1e-05 5.191e-07 1e-05 2.8567e-06 3.0217 2.4 
+ 375636.4874 1e-05 5e-07 6.3772e-06 2.1545e-06 2.5584 2.1775 
+ 482675.4343 7.4205e-06 6.1182e-07 1e-06 5e-07 1.8 1.8 
+ 145377.2624 1e-05 7.0085e-07 6.796e-06 2.4835e-06 2.3909 1.9921 
+ 10000 9.7865e-06 5e-07 1e-05 1.8771e-06 3.1322 2.2325 
+ 102050.2239 1e-05 8.0669e-07 7.8278e-06 2.2963e-06 2.3658 2.0064 
+ 10000 9.9102e-06 5e-07 3.8485e-06 1.3622e-06 3.1872 2.4 
+ 55831.3431 1e-05 6.3575e-07 9.5576e-06 2.3851e-06 2.4374 2.2413 
+ 10000 1e-05 5e-07 6.3772e-06 2.1545e-06 2.5584 2.1775 
+ 10000 7.2101e-06 5e-07 6.337e-06 2.216e-06 2.3719 2.0099 
+ 147019.9633 9.0618e-06 5.7773e-07 1e-05 2.5137e-06 2.4339 2.2402 
+ 10000 9.4848e-06 5e-07 5.5814e-06 1.7996e-06 2.3719 1.9274 
+ 15012.367 9.8007e-06 6.7804e-07 7.0331e-06 1.9299e-06 2.6456 2.2554 
+ 80222.75 1e-05 7.0296e-07 8.0463e-06 2.3954e-06 2.1198 1.967 
+ 113688.7819 1e-05 6.1549e-07 6.6287e-06 1.9238e-06 3.1126 2.4 
+ 39335.2831 1e-05 6.1146e-07 6.7878e-06 2.7365e-06 2.9256 2.1336 
+ 49496.9185 1e-05 6.6652e-07 4.5022e-06 1.4885e-06 3.1911 2.4 
+ 10000 1e-05 5e-07 6.3772e-06 2.1545e-06 2.5584 2.1089 
+ 251634.3141 1e-05 6.046e-07 7.393e-06 2.815e-06 2.8926 1.9208 
+ 10000 9.9102e-06 5e-07 3.8485e-06 1.3622e-06 3.1872 2.4 
+ 31315.2123 9.914e-06 6.743e-07 1e-05 2.1987e-06 2.4525 2.2446 
+ 430234.7831 1e-05 7.0296e-07 6.9296e-06 2.3954e-06 2.5126 1.967 
+ 317270.9772 7.4205e-06 6.1182e-07 1e-06 5e-07 1.8 1.8519 
+ 10000 9.2277e-06 5e-07 3.8485e-06 1.3622e-06 3.1872 2.2937 
+ 10000 1e-05 6.6228e-07 1e-05 2.6393e-06 2.885 2.3847 
+ 482675.4343 7.4205e-06 6.0448e-07 2.4908e-06 5e-07 1.8 1.8519 
+ 10000 1e-05 5e-07 9.6858e-06 2.1545e-06 2.885 2.4 
+ 49911.6003 1e-05 5.844e-07 1e-05 2.3637e-06 2.8833 2.3572 
+ 97771.8071 1e-05 5.7433e-07 1e-05 2.7169e-06 2.4808 2.2213 
+ 10000 9.9102e-06 5e-07 6.3772e-06 2.3344e-06 2.8189 2.3225 
+ 10000 1e-05 5e-07 8.434e-06 1.7072e-06 2.3719 1.9532 
+ 105259.1746 1e-05 6.4158e-07 1e-05 1.5994e-06 2.3908 2.4 
+ 10000 9.9874e-06 5e-07 1e-05 2.5723e-06 2.4323 2.1204 
+ 80222.75 1e-05 5e-07 7.8231e-06 2.3954e-06 2.0833 2.1913 
+ 19331.0092 9.2291e-06 5.9665e-07 1e-05 1.9129e-06 2.5729 2.2485 
+ 10000 6.3214e-06 5e-07 9.531e-06 2.216e-06 2.5082 2.0099 
+ 63401.9024 1e-05 5.6004e-07 1.4161e-06 2.2767e-06 2.5621 2.1878 
+ 10000 1e-05 5e-07 3.8485e-06 1.3622e-06 3.1872 2.4 
+ 93788.8198 9.8789e-06 7.5155e-07 1e-05 2.6732e-06 1.8861 2.1338 
+ 184030.5629 1e-05 8.9106e-07 1.4986e-06 1.6779e-06 2.3873 1.9809 
+ 63917.6501 9.9102e-06 5e-07 6.3772e-06 2.3344e-06 2.8189 2.4 
+ 279750.8558 1e-05 9.1441e-07 7.0367e-06 2.8159e-06 2.5309 1.8782 
+ 10000 9.9102e-06 5e-07 9.531e-06 2.216e-06 2.3719 2.0099 
+ 143100.3266 1e-05 8.8189e-07 6.5664e-06 2.4595e-06 2.3248 2.0029 
+ 10000 9.7865e-06 5e-07 1e-05 1.8771e-06 2.173 2.2325 
+ 10000 1e-05 5e-07 6.3772e-06 2.1545e-06 2.5584 2.1089 
+ 69116.962 1e-05 6.2283e-07 7.2644e-06 1.9124e-06 2.6447 2.4 
+ 277643.6461 1e-05 5.0593e-07 7.1383e-06 2.5042e-06 2.9304 2.4 
+ 206918.616 1e-05 8.9374e-07 5.8167e-06 2.3826e-06 2.347 1.8756 
.enddata

.printfile ac v(voutr, voutl) file=acResult
