
.global 0 

.param R1=10000 W1=1u L1=1u Wb=1u Lb=1u VB=1 Voffset=1


*resistive load diff pair

.model nMOS nmos level=53
.model pMOS pmos level=53

R01 netVDD voutl 'R1'
R02 netVDD voutr 'R1'

m1 voutl vinl virtgr 0 nMOS w='W1' l='L1'
m2 voutr vinr virtgr 0 nMOS w='W1' l='L1'

C01 voutr 0 5p
C02 voutl 0 5p

m3 virtgr vbias 0 0 nMOS w='Wb' l='Lb'

V0 netVDD 0 dc 3.3
V1 voffset 0 dc 'Voffset'
V3 vinl voffset dc 0
V4 vinr voffset dc -0
V2 vbias 0 'VB'


.dc data=list

.data list R1 W1 L1 Wb Lb VB Voffset
+ 40174.5454 1e-05 5e-07 1.9638e-06 2.5488e-06 3.2192 1.873 
+ 45092.0723 1e-05 5e-07 7.9838e-06 1.3672e-06 2.427 2.0568 
+ 10000 1e-05 5e-07 1e-05 1.4356e-06 2.6108 2.0568 
+ 10000 1e-05 5e-07 8.1079e-06 3e-06 1.8 2.0568 
+ 10000 1e-05 5e-07 1e-05 3e-06 2.0319 2.0568 
+ 10000 1e-05 5e-07 1e-05 1.57e-06 2.6108 2.0568 
+ 10000 8.3123e-06 5e-07 8.9995e-06 3e-06 2.427 2.4 
+ 32950.3891 1e-05 5e-07 1e-05 3e-06 2.427 1.8124 
+ 10000 9.7089e-06 5e-07 1e-05 5.3111e-07 1.8 2.0568 
+ 10000 1e-05 5e-07 8.1079e-06 3e-06 2.3705 2.0061 
+ 10000 1e-05 5e-07 8.1079e-06 3e-06 1.8 2.0568 
+ 40174.5454 9.1765e-06 5e-07 1.922e-06 2.5488e-06 3.2192 1.873 
+ 73302.7394 8.0794e-06 5e-07 8.9995e-06 3e-06 1.9017 2.2823 
+ 10000 7.7489e-06 5e-07 7.1338e-06 7.0703e-07 2.3994 2.0568 
+ 10000 1e-05 5e-07 8.0825e-06 3e-06 2.0319 1.8 
+ 10000 1e-05 5e-07 1e-05 1.3672e-06 2.0007 2.0568 
+ 10000 1e-05 5e-07 1e-05 3e-06 2.427 2.114 
+ 40174.5454 1e-05 5e-07 1.9638e-06 2.227e-06 2.8118 1.873 
+ 34557.343 9.7089e-06 5e-07 1e-05 2.3476e-06 2.3994 2.0568 
+ 100000 1e-06 5e-07 1e-05 5e-07 1.8 1.8 
+ 10000 8.3123e-06 5e-07 8.9995e-06 3e-06 2.3853 2.4 
+ 39992.1177 9.7089e-06 5e-07 1e-05 2.3476e-06 2.3994 2.0568 
+ 10000 9.7089e-06 1.5635e-06 1e-05 2.5308e-06 2.6428 2.2845 
+ 10000 1e-05 1.5943e-06 1e-05 2.3476e-06 2.3994 2.0568 
+ 58372.5484 1e-05 5e-07 1e-05 1.3672e-06 2.6108 2.0568 
+ 10000 9.7089e-06 5e-07 1e-05 2.3476e-06 2.3994 2.0568 
+ 11334.298 9.9434e-06 5.8525e-07 9.8639e-06 2.312e-06 2.3957 2.051 
+ 40174.5454 6.8374e-06 5e-07 1e-06 1.6991e-06 3.1472 2.0989 
+ 10000 8.3123e-06 1.3006e-06 8.9995e-06 3e-06 3.3 2.3229 
+ 100000 1e-06 5e-07 1e-05 5e-07 1.8 2.0914 
+ 10000 1e-05 5e-07 1e-05 3e-06 2.0319 2.0413 
+ 40174.5454 1e-05 5e-07 2.4833e-06 2.5488e-06 3.2192 1.873 
+ 10000 1e-05 1.5295e-06 5.395e-06 3e-06 2.427 2.0721 
+ 10000 1e-05 5e-07 8.1079e-06 3e-06 2.0319 2.0568 
+ 45092.0723 1e-05 5e-07 7.9838e-06 1.3672e-06 2.427 2.0568 
+ 38303.2405 9.7089e-06 5e-07 1e-05 2.3476e-06 2.3994 2.0568 
+ 10000 8.3123e-06 5e-07 8.9995e-06 3e-06 2.427 2.032 
+ 45092.0723 1e-05 5e-07 7.9838e-06 1.3672e-06 2.427 2.1893 
+ 10000 8.0794e-06 9.4516e-07 8.9995e-06 3e-06 1.9017 2.2823 
+ 10000 9.7089e-06 5e-07 1e-05 2.3476e-06 2.3994 2.0568 
+ 10000 1e-05 5e-07 8.1079e-06 3e-06 2.0319 1.9318 
+ 10530.3157 9.9287e-06 5.5857e-07 2.1766e-06 2.6118e-06 2.0018 2.2832 
+ 10000 1e-05 5e-07 5.395e-06 3e-06 2.3434 2.0721 
+ 76865.5906 1e-05 5e-07 4.675e-06 1.3672e-06 2.427 2.0568 
+ 40174.5454 9.5887e-06 5e-07 1.9638e-06 2.5488e-06 3.2192 2.0001 
+ 10000 8.0794e-06 5e-07 8.4698e-06 3e-06 1.9017 2.2823 
+ 10000 8.0794e-06 5e-07 8.9995e-06 3e-06 1.8 2.2823 
+ 10000 8.1633e-06 5e-07 8.9995e-06 3e-06 1.9017 2.2823 
+ 10000 9.7089e-06 5e-07 1e-05 2.3476e-06 2.3994 2.0568 
+ 100000 1e-06 5e-07 1e-05 5e-07 1.8 1.8 
+ 100000 1e-06 5e-07 9.1256e-06 5e-07 1.8 1.8 
+ 10000 1e-05 5e-07 5.395e-06 3e-06 2.427 2.4 
+ 10000 1e-05 5e-07 9.1075e-06 3e-06 2.0319 2.2679 
+ 10000 1e-05 5e-07 8.092e-06 3e-06 1.8 2.0568 
+ 10000 1e-05 5e-07 5.5792e-06 3e-06 2.0319 2.0568 
.enddata

.printfile dc ID(m3) file=dcResult
