
.global 0 

.param R1=10000 W1=1u L1=1u Wb=1u Lb=1u VB=1 Voffset=1


*resistive load diff pair

.model nMOS nmos level=53
.model pMOS pmos level=53

R01 netVDD voutl 'R1'
R02 netVDD voutr 'R1'

m1 voutl vinl virtgr 0 nMOS w='W1' l='L1'
m2 voutr vinr virtgr 0 nMOS w='W1' l='L1'

C01 voutr 0 5p
C02 voutl 0 5p

m3 virtgr vbias 0 0 nMOS w='Wb' l='Lb'

V0 netVDD 0 dc 3.3
V1 voffset 0 dc 'Voffset'
V3 vinl voffset dc 0
V4 vinr voffset dc -0
V2 vbias 0 'VB'


.dc data=list

.data list R1 W1 L1 Wb Lb VB Voffset
+ 9.5009e-06 1.2988e-06 8.4412e-06 1.873e-06 1.9937 9.0427e-06 5.7025e-07 2.1641 
+ 7.5053e-06 1.1464e-06 5.8101e-06 1.9956e-06 2.2606 5.5252e-06 6.0825e-07 2.6627 
+ 5.3207e-06 2.0795e-06 8.9848e-06 2.5096e-06 2.6922 9.7372e-06 1.3944e-06 3.2523 
+ 3.3408e-06 1.6225e-06 9.3385e-06 1.3731e-06 3.2099 7.1311e-06 7.1673e-07 2.8946 
+ 2.8539e-06 2.253e-06 3.971e-06 1.3218e-06 1.8749 9.4416e-06 1.4913e-06 2.0439 
+ 7.6092e-06 1.0571e-06 3.331e-06 2.4452e-06 2.3621 2.5508e-06 1.8688e-06 2.849 
+ 8.9938e-06 2.3338e-06 4.1904e-06 2.9931e-06 1.946 7.6239e-06 1.6147e-06 3.0612 
+ 1.0336e-06 8.7319e-07 8.1828e-06 5.5743e-07 2.7054 2.1158e-06 1.7295e-06 2.2182 
+ 3.9015e-06 2.6375e-06 6.4485e-06 5.8899e-07 2.0566 8.6329e-06 2.6459e-06 1.8059 
+ 5.1572e-06 1.4204e-06 7.3133e-06 2.8121e-06 2.2368 6.1142e-06 2.269e-06 1.8778 
+ 8.2842e-06 9.8725e-07 4.4652e-06 2.1373e-06 3.2556 5.4046e-06 7.7347e-07 3.1701 
+ 1.8574e-06 1.1938e-06 7.6373e-06 1.8267e-06 3.165 8.4605e-06 2.9836e-06 3.1319 
+ 9.8164e-06 2.7748e-06 3.0659e-06 1.199e-06 2.5391 2.9206e-06 2.3543e-06 2.1157 
+ 6.588e-06 1.9514e-06 5.5551e-06 1.5847e-06 2.4798 1.0233e-06 1.2986e-06 1.9908 
+ 9.2944e-06 6.6469e-07 6.7792e-06 2.6407e-06 2.6346 3.1789e-06 1.0398e-06 2.7516 
+ 7.1035e-06 7.2084e-07 2.6808e-06 9.0595e-07 2.5636 8.0584e-06 2.7138e-06 2.5118 
+ 5.7198e-06 5.2878e-07 9.7425e-06 2.7322e-06 2.1491 4.1909e-06 2.8243e-06 3.2095 
+ 2.4049e-06 2.9847e-06 1.865e-06 7.2642e-07 2.7689 1.4445e-06 1.7938e-06 2.2548 
+ 6.7184e-06 1.8885e-06 5.1812e-06 2.0531e-06 2.4379 7.5078e-06 1.9831e-06 2.3588 
+ 5.8025e-06 2.5756e-06 1.2358e-06 2.3759e-06 2.0238 4.7995e-06 1.5184e-06 2.961 
+ 4.6227e-06 2.685e-06 9.58e-06 9.7436e-07 2.9801 2.4602e-06 2.1157e-06 2.4522 
+ 2.5694e-06 2.2109e-06 6.1473e-06 2.1813e-06 2.17 6.025e-06 8.6444e-07 2.062 
+ 6.3075e-06 7.7036e-07 5.3069e-06 1.7112e-06 2.895 3.4406e-06 2.9044e-06 2.7277 
+ 1.4659e-06 1.5462e-06 8.752e-06 1.1354e-06 1.8134 9.3365e-06 9.2856e-07 2.5922 
+ 2.0235e-06 1.7677e-06 4.6776e-06 2.2632e-06 2.3126 6.7422e-06 2.0338e-06 3.0274 
+ 8.6032e-06 2.9137e-06 1.3167e-06 2.8739e-06 3.0437 5.1421e-06 2.5163e-06 2.9208 
+ 8.0513e-06 2.0843e-06 7.0319e-06 8.3049e-07 3.0888 3.8197e-06 1.1994e-06 2.3126 
+ 3.5279e-06 2.4239e-06 2.1263e-06 1.4359e-06 2.8246 4.3736e-06 2.2413e-06 2.6062 
+ 4.0057e-06 1.3934e-06 2.2815e-06 1.5741e-06 3.1346 1.6522e-06 1.0946e-06 2.4317 
+ 4.3718e-06 1.7188e-06 3.4524e-06 1.028e-06 2.9292 6.5237e-06 2.4579e-06 1.9142 
.enddata

.printfile dc ID(m3) file=dcResult
