
.global 0 

.param X1=100 X2=0.1

R01 vin vout 'X1'
C01 vout 0 'X2'

V0 vin 0 ac 1

.ac dec 10 100 1G data=list

.data list X1 X2
+ 77870.1413 2.9942e-06 5.3232e-06 5.4593e-06 4.9681e-06 2.7674 
.enddata

.printfile ac v(vout) file=acResult
