
.global 0 

.param X1=100 X2=0.1

R01 vin vout 'X1'
C01 vout 0 'X2'

V0 vin 0 pulse( 0 3.3 0 1p 1m)

.option hmax=1u
.tran 1u 1m data=list

.data list X1 X2
+ 65130.9823 7.6478e-06 7.9213e-06 5.9706e-06 2.3186e-06 0.40898 
+ 99095.5185 6.2739e-06 6.233e-06 6.669e-06 2.7016e-06 1.6182 
+ 57491.2062 3.2206e-06 9.3548e-06 1.2879e-06 1.3839e-06 2.8149 
+ 53157.1047 6.9977e-06 6.2208e-06 6.5324e-06 6.7168e-06 2.884 
+ 82121.2845 1.7513e-06 1.1528e-06 4.2617e-06 3.5368e-06 0.89197 
+ 30505.8642 6.6336e-06 2.0877e-06 1.4458e-06 5.8474e-06 0.68792 
+ 54828.4862 6.9485e-06 8.7644e-06 5.4061e-06 7.2565e-06 1.8644 
+ 91076.724 7.5678e-06 5.3587e-06 2.7326e-06 5.492e-06 2.113 
+ 61719.5097 9.0168e-06 8.6037e-06 2.1078e-06 5.8222e-06 1.3762 
+ 86066.0367 9.8407e-06 2.8846e-06 2.8494e-06 5.0066e-06 0.67972 
.enddata

.printfile tran v(vout) file=tranResult
