
.global 0 

.param R1=10000 W1=1u L1=1u Wb=1u Lb=1u VB=1 Wd=1u Ld=1u


*resistive load diff pair

.model nMOS nmos level=53
.model pMOS pmos level=53

m4 voutl voutl netVDD netVDD pMOS w='Wd' l='Ld'
m5 voutr voutl netVDD netVDD pMOS w='Wd' l='Ld'

m1 voutl vinl virtgr 0 nMOS w='W1' l='L1'
m2 voutr vinr virtgr 0 nMOS w='W1' l='L1'

C01 voutr 0 5p
C02 voutl 0 5p

m3 virtgr vbias 0 0 nMOS w='Wb' l='Lb'

V0 netVDD 0 dc 3.3
V1 voffset 0 dc 2
V3 vinl voffset dc 0
V4 vinr voffset dc -0
V2 vbias 0 'VB'


.dc data=list

.data list R1 W1 L1 Wb Lb VB Wd Ld
+ 75110.2064 1e-06 1.6157e-06 1e-06 1.0888e-06 1.8 4.0446e-06 1.3423e-06 
+ 40315.4512 1.8624e-06 1.0992e-06 1.201e-06 1.0295e-06 1.9165 1.5949e-06 1.9751e-06 
+ 17048.9924 1.2145e-06 1e-06 1e-06 1e-06 1.8 1e-06 3e-06 
+ 23872.5019 1e-06 1e-06 1e-06 1e-06 1.8 3.0153e-06 2.5654e-06 
+ 45320.5071 1.6946e-06 1.0182e-06 1.1677e-06 1.0121e-06 1.9168 1.7993e-06 3e-06 
+ 100000 1e-06 1e-06 1e-06 1e-06 1.8 5.1184e-06 2.1544e-06 
+ 50716.5124 1e-06 1.0887e-06 3.1628e-06 1.1345e-06 1.8 1e-06 1.4502e-06 
+ 42307.6971 1.5761e-06 1.0007e-06 1.0869e-06 1.0736e-06 1.9282 3.7024e-06 1.443e-06 
+ 69283.7617 1.713e-06 1.0933e-06 1.1677e-06 1.1344e-06 1.892 1.0497e-06 1.6742e-06 
+ 72952.1032 1.8503e-06 1.169e-06 1.3963e-06 1.0014e-06 1.9412 1.0447e-06 1.2855e-06 
+ 66884.6398 1.4665e-06 1.1743e-06 1.017e-06 1.1024e-06 1.88 1.377e-06 1.9496e-06 
+ 92927.8358 1e-06 1e-06 1e-06 1.8278e-06 1.8 3.3467e-06 1.878e-06 
+ 50716.5124 1e-06 1e-06 1e-06 1e-06 1.8 1e-06 1e-06 
+ 65504.9519 1e-06 1.6627e-06 1.5904e-06 1e-06 1.8 1e-06 1.5547e-06 
+ 59022.1809 1.0939e-06 1.1982e-06 1.1327e-06 1.1114e-06 1.8154 1.502e-06 1.3384e-06 
+ 66455.9787 1e-06 1e-06 1e-06 1e-06 1.8 1e-06 1.719e-06 
+ 80742.9473 1e-06 1.349e-06 1e-06 1.4033e-06 1.8 1e-06 1.6644e-06 
+ 100000 1.6732e-06 1.0757e-06 1.7972e-06 1.0432e-06 1.935 5.1906e-06 1.9003e-06 
+ 66455.9787 1e-06 1e-06 1e-06 1e-06 1.8 1e-06 1.719e-06 
+ 28976.394 1.3684e-06 1.1904e-06 1.4765e-06 1.0419e-06 1.872 1.5047e-06 2.7502e-06 
+ 71209.1056 1.8349e-06 1.128e-06 1.7317e-06 1.0495e-06 1.8622 1.6525e-06 1.7393e-06 
+ 98457.5141 1.3745e-06 1.0375e-06 1.7477e-06 1.1614e-06 1.9361 5.2138e-06 2.6787e-06 
+ 100000 1.1814e-06 1.0811e-06 1.61e-06 1.1216e-06 1.8159 1.7982e-06 2.5108e-06 
+ 51297.4411 1.7807e-06 1.0462e-06 1.4551e-06 1.0015e-06 1.8148 5.9151e-06 2.5965e-06 
+ 100000 1.0238e-06 1.1458e-06 1.5263e-06 1.122e-06 1.8871 4.447e-06 2.6515e-06 
+ 71949.4365 1.0469e-06 1.0242e-06 1.0946e-06 1.0116e-06 1.8376 1.3929e-06 1.6311e-06 
+ 69927.1212 1.6513e-06 1.1784e-06 1.8705e-06 1.0057e-06 1.9282 1.6848e-06 2.0474e-06 
+ 98301.885 1.5088e-06 1.0316e-06 1.3471e-06 1.1862e-06 1.8421 5.2004e-06 1.5946e-06 
+ 72449.9989 1.1807e-06 1.1964e-06 1.0057e-06 1.1019e-06 1.846 1.7548e-06 1.3072e-06 
+ 50716.5124 1.3609e-06 1.5556e-06 1e-06 1e-06 1.8 1e-06 1.2253e-06 
+ 58370.9016 1.8006e-06 1.0488e-06 1.4553e-06 1.0212e-06 1.8107 1.7892e-06 1.7584e-06 
+ 27873.9861 1.6862e-06 1.1381e-06 1.6767e-06 1.1193e-06 1.8114 5.7973e-06 2.7266e-06 
+ 44718.8701 1e-06 1e-06 1e-06 1e-06 1.8 3.5842e-06 3e-06 
+ 30103.659 1.5596e-06 1.076e-06 1.3145e-06 1.1099e-06 1.8892 1.8855e-06 2.4433e-06 
+ 56179.9271 1.0535e-06 1.0299e-06 1.1771e-06 1.0393e-06 1.8504 1.3643e-06 1.3819e-06 
+ 80742.9473 1e-06 1e-06 1e-06 1e-06 1.8 1e-06 1.2534e-06 
+ 69463.5856 1.3108e-06 1.1366e-06 1.6033e-06 1.1726e-06 1.9431 1.7144e-06 1.6124e-06 
+ 24228.0972 1.3223e-06 1.1112e-06 1.1123e-06 1.0948e-06 1.8232 1.4831e-06 2.5861e-06 
+ 100000 1.2209e-06 1.0279e-06 1.5047e-06 1.1403e-06 1.8198 1.742e-06 2.7268e-06 
+ 23872.5019 1e-06 1e-06 1e-06 1e-06 2.212 1e-06 2.5654e-06 
+ 72465.9565 1.5475e-06 1.1601e-06 1.7984e-06 1.1379e-06 1.81 1.0047e-06 1.9995e-06 
+ 22979.2978 1.679e-06 1e-06 1e-06 1e-06 1.8 2.0088e-06 2.5654e-06 
+ 46108.038 1e-06 1e-06 1e-06 1e-06 1.8 1e-06 2.5654e-06 
+ 55543.9318 1.2247e-06 1.0533e-06 1.14e-06 1.0772e-06 1.9471 1.5164e-06 1.3691e-06 
+ 100000 1e-06 1e-06 1e-06 1e-06 1.8 1.2678e-06 2.2982e-06 
+ 23872.5019 1e-06 1e-06 1e-06 1.1851e-06 1.8 1e-06 2.5654e-06 
+ 53358.9123 1.225e-06 1.1824e-06 1.8244e-06 1.0497e-06 1.8417 1.2909e-06 1.2745e-06 
+ 82930.7408 1.751e-06 1.0671e-06 1.4503e-06 1.0672e-06 1.8089 1.4037e-06 2.645e-06 
+ 54646.9973 1e-06 1e-06 1e-06 1e-06 1.8 1e-06 1.8746e-06 
+ 14579.974 1.4834e-06 1.1029e-06 1.5351e-06 1.1999e-06 1.8236 1.7866e-06 2.3788e-06 
.enddata

.printfile dc ID(m3) file=dcResult
